/*--------------------------------*- C++ -*----------------------------------*/

// File was generated by SwiftBlock, a Blender 3D addon.

FoamFile
{
    version     2.0;
    format      ascii;
    class       dictionary;
    object      blockMeshDict;
}
// * * * * * * * * * * * * * * * * * * * * * * * * * * * * * * * * * * * * * //

convertToMeters 0.001;

searchLength 10;

vertices
(
    (0.3917253017425537 0.3917252719402313 -0.3917253017425537)
    (0.3917253017425537 -0.3917253017425537 -0.3917253017425537)
    (-0.3917253613471985 -0.39172524213790894 -0.3917253017425537)
    (-0.3917251527309418 0.39172545075416565 -0.3917253017425537)
    (0.39172548055648804 0.391725093126297 0.3917253017425537)
    (0.3917250335216522 -0.3917255401611328 0.3917253017425537)
    (-0.39172545075416565 -0.3917251527309418 0.3917253017425537)
    (-0.3917252719402313 0.3917253017425537 0.3917253017425537)
    (0.5814146399497986 0.5814146399497986 -0.5814146399497986)
    (0.5814146399497986 -0.5814146399497986 -0.5814146399497986)
    (-0.5814146399497986 -0.5814144611358643 -0.5814146399497986)
    (-0.5814144015312195 0.5814148187637329 -0.5814146399497986)
    (0.5814148783683777 0.5814143419265747 0.5814146399497986)
    (0.5814142823219299 -0.5814149379730225 0.5814146399497986)
    (-0.5814148187637329 -0.5814144015312195 0.5814146399497986)
    (-0.5814145803451538 0.5814146399497986 0.5814146399497986)
);
blocks
(

    hex (4 5 6 7 0 1 2 3)  (20 20 20) edgeGrading ( 1 1.0 1.0 1 1 1 1 1 1.0 1.0 1.0 1.0)
    hex (0 1 2 3 8 9 10 11)  (20 20 13) edgeGrading ( 1 1.0 1.0 1 1 1 1 1 1 1 1.0 1)
    hex (8 9 13 12 0 1 5 4)  (20 20 13) edgeGrading ( 1 1 1 1 1 1 1 1 1.0 1.0 1 1.0)
    hex (0 3 7 4 8 11 15 12)  (20 20 13) edgeGrading ( 1 1 1 1 1 1 1 1 1 1 1.0 1)
    hex (9 10 14 13 1 2 6 5)  (20 20 13) edgeGrading ( 1 1 1 1 1 1 1 1 1.0 1 1 1)
    hex (10 11 15 14 2 3 7 6)  (20 20 13) edgeGrading ( 1 1 1 1 1 1 1 1 1 1.0 1 1)
    hex (12 13 14 15 4 5 6 7)  (20 20 13) edgeGrading ( 1 1.0 1.0 1 1 1 1 1 1.0 1 1 1)
/*
    hex (4 5 6 7 0 1 2 3)  (4 4 4) edgeGrading ( 1 1.0 1.0 1 1 1 1 1 1.0 1.0 1.0 1.0)
    hex (0 1 2 3 8 9 10 11)  (4 4 3) edgeGrading ( 1 1.0 1.0 1 1 1 1 1 1 1 1.0 1)
    hex (8 9 13 12 0 1 5 4)  (4 4 3) edgeGrading ( 1 1 1 1 1 1 1 1 1.0 1.0 1 1.0)
    hex (0 3 7 4 8 11 15 12)  (4 4 3) edgeGrading ( 1 1 1 1 1 1 1 1 1 1 1.0 1)
    hex (9 10 14 13 1 2 6 5)  (4 4 3) edgeGrading ( 1 1 1 1 1 1 1 1 1.0 1 1 1)
    hex (10 11 15 14 2 3 7 6)  (4 4 3) edgeGrading ( 1 1 1 1 1 1 1 1 1 1.0 1 1)
    hex (12 13 14 15 4 5 6 7)  (4 4 3) edgeGrading ( 1 1.0 1.0 1 1 1 1 1 1.0 1 1 1)
*/
);

patches
(
    wall defaultName
    (
        (11 8 9 10)
        (8 12 13 9)
        (12 8 11 15)
        (9 13 14 10)
        (10 14 15 11)
        (12 15 14 13)
    )
);

snapFaces
{
    test.stl
    {
        faces
        (
        (11 8 9 10)
        (8 12 13 9)
        (12 8 11 15)
        (9 13 14 10)
        (10 14 15 11)
        (12 15 14 13)
        );
    }
};


edges
(
polyLine 0 1 ((0.3917253017425537 0.3917252719402313 -0.3917253017425537)(0.3919636607170105 0.3838116228580475 -0.3919636607170105)(0.392235666513443 0.37589797377586365 -0.392235666513443)(0.39254558086395264 0.3679843544960022 -0.39254558086395264)(0.3928980827331543 0.36007070541381836 -0.3928980827331543)(0.39329835772514343 0.3521570861339569 -0.39329835772514343)(0.39375194907188416 0.34424343705177307 -0.39375194907188416)(0.394264817237854 0.33632978796958923 -0.394264817237854)(0.39484310150146484 0.3284161388874054 -0.39484310150146484)(0.3954932689666748 0.32050248980522156 -0.3954932689666748)(0.396221786737442 0.3125888407230377 -0.396221786737442)(0.3970351219177246 0.3046751916408539 -0.3970351219177246)(0.3979393541812897 0.29676154255867004 -0.3979393541812897)(0.39893999695777893 0.2888479232788086 -0.39893999695777893)(0.4000416398048401 0.28093427419662476 -0.4000416398048401)(0.4012477993965149 0.2730206549167633 -0.4012477993965149)(0.40256017446517944 0.26510700583457947 -0.40256017446517944)(0.4039786159992218 0.25719335675239563 -0.4039786159992218)(0.4055006206035614 0.2492797076702118 -0.4055006206035614)(0.40712112188339233 0.24136605858802795 -0.40712112188339233)(0.408832311630249 0.23345240950584412 -0.408832311630249)(0.41062358021736145 0.22553879022598267 -0.41062358021736145)(0.41248154640197754 0.21762515604496002 -0.41248154640197754)(0.41439059376716614 0.20971150696277618 -0.41439059376716614)(0.4163331091403961 0.20179785788059235 -0.4163331091403961)(0.4182901978492737 0.1938842236995697 -0.4182901978492737)(0.42024242877960205 0.18597057461738586 -0.42024242877960205)(0.422170490026474 0.17805695533752441 -0.422170490026474)(0.42405611276626587 0.17014330625534058 -0.42405611276626587)(0.4258825182914734 0.16222965717315674 -0.4258825182914734)(0.4276352524757385 0.1543160080909729 -0.4276352524757385)(0.42930224537849426 0.14640237390995026 -0.42930224537849426)(0.4308743178844452 0.13848869502544403 -0.4308743178844452)(0.4323450028896332 0.13057507574558258 -0.4323450028896332)(0.43371057510375977 0.12266144156455994 -0.43371057510375977)(0.4349696934223175 0.1147477924823761 -0.4349696934223175)(0.4361232817173004 0.10683414340019226 -0.4361232817173004)(0.4371739327907562 0.09892049431800842 -0.4371739327907562)(0.43812572956085205 0.09100687503814697 -0.43812572956085205)(0.4389837682247162 0.08309322595596313 -0.4389837682247162)(0.4397538900375366 0.07517959177494049 -0.4397538900375366)(0.44044244289398193 0.06726594269275665 -0.44044244289398193)(0.44105586409568787 0.059352293610572815 -0.44105586409568787)(0.44160062074661255 0.05143865942955017 -0.44160062074661255)(0.44208309054374695 0.04352502524852753 -0.44208309054374695)(0.44250935316085815 0.03561137616634369 -0.44250935316085815)(0.44288507103919983 0.02769772708415985 -0.44288507103919983)(0.44321566820144653 0.019784078001976013 -0.44321566820144653)(0.44350603222846985 0.011870428919792175 -0.44350603222846985)(0.4437606930732727 0.003956794738769531 -0.4437606930732727)(0.4437606930732727 -0.003956824541091919 -0.4437606930732727)(0.44350603222846985 -0.011870458722114563 -0.44350603222846985)(0.44321566820144653 -0.0197841078042984 -0.44321566820144653)(0.44288507103919983 -0.02769775688648224 -0.44288507103919983)(0.44250935316085815 -0.03561140596866608 -0.44250935316085815)(0.44208309054374695 -0.043525055050849915 -0.44208309054374695)(0.44160062074661255 -0.05143868923187256 -0.44160062074661255)(0.44105586409568787 -0.0593523234128952 -0.44105586409568787)(0.44044244289398193 -0.06726597249507904 -0.44044244289398193)(0.4397538900375366 -0.07517962157726288 -0.4397538900375366)(0.4389837682247162 -0.08309325575828552 -0.4389837682247162)(0.43812572956085205 -0.09100690484046936 -0.43812572956085205)(0.4371739327907562 -0.098920539021492 -0.4371739327907562)(0.4361232817173004 -0.10683417320251465 -0.4361232817173004)(0.4349696934223175 -0.11474782228469849 -0.4349696934223175)(0.43371057510375977 -0.12266147136688232 -0.43371057510375977)(0.4323450028896332 -0.13057512044906616 -0.4323450028896332)(0.4308743178844452 -0.1384887397289276 -0.4308743178844452)(0.42930224537849426 -0.14640238881111145 -0.42930224537849426)(0.4276352524757385 -0.1543160229921341 -0.4276352524757385)(0.4258825182914734 -0.16222967207431793 -0.4258825182914734)(0.42405611276626587 -0.17014332115650177 -0.42405611276626587)(0.422170490026474 -0.17805695533752441 -0.422170490026474)(0.42024242877960205 -0.18597060441970825 -0.42024242877960205)(0.4182901978492737 -0.1938842535018921 -0.4182901978492737)(0.4163331091403961 -0.20179790258407593 -0.4163331091403961)(0.41439059376716614 -0.20971155166625977 -0.41439059376716614)(0.41248154640197754 -0.2176252007484436 -0.41248154640197754)(0.41062358021736145 -0.22553883492946625 -0.41062358021736145)(0.408832311630249 -0.2334524542093277 -0.408832311630249)(0.40712112188339233 -0.24136608839035034 -0.40712112188339233)(0.4055006206035614 -0.24927973747253418 -0.4055006206035614)(0.4039786159992218 -0.257193386554718 -0.4039786159992218)(0.40256017446517944 -0.26510703563690186 -0.40256017446517944)(0.4012477993965149 -0.2730206847190857 -0.4012477993965149)(0.4000416398048401 -0.28093430399894714 -0.4000416398048401)(0.39893999695777893 -0.288847953081131 -0.39893999695777893)(0.3979393541812897 -0.29676157236099243 -0.3979393541812897)(0.3970351219177246 -0.30467522144317627 -0.3970351219177246)(0.396221786737442 -0.3125888705253601 -0.396221786737442)(0.3954932689666748 -0.32050251960754395 -0.3954932689666748)(0.39484310150146484 -0.3284161686897278 -0.39484310150146484)(0.394264817237854 -0.3363298177719116 -0.394264817237854)(0.39375194907188416 -0.34424346685409546 -0.39375194907188416)(0.39329835772514343 -0.3521571159362793 -0.39329835772514343)(0.3928980827331543 -0.36007076501846313 -0.3928980827331543)(0.39254558086395264 -0.3679843842983246 -0.39254558086395264)(0.392235666513443 -0.37589800357818604 -0.392235666513443)(0.3919636607170105 -0.3838116526603699 -0.3919636607170105)(0.3917253017425537 -0.3917253017425537 -0.3917253017425537))
polyLine 0 3 ((0.3917253017425537 0.3917252719402313 -0.3917253017425537)(0.3838116526603699 0.3919636309146881 -0.3919636607170105)(0.37589800357818604 0.3922356367111206 -0.392235666513443)(0.3679843842983246 0.39254555106163025 -0.39254558086395264)(0.36007076501846313 0.3928980529308319 -0.3928980827331543)(0.3521571159362793 0.39329835772514343 -0.39329835772514343)(0.34424346685409546 0.39375194907188416 -0.39375194907188416)(0.3363298177719116 0.394264817237854 -0.394264817237854)(0.3284161686897278 0.39484310150146484 -0.39484310150146484)(0.32050251960754395 0.3954932689666748 -0.3954932689666748)(0.3125889003276825 0.39622175693511963 -0.396221786737442)(0.30467525124549866 0.3970350921154022 -0.3970351219177246)(0.2967616021633148 0.3979393243789673 -0.3979393541812897)(0.288847953081131 0.39893996715545654 -0.39893999695777893)(0.28093430399894714 0.4000416398048401 -0.4000416398048401)(0.2730206847190857 0.4012477993965149 -0.4012477993965149)(0.26510703563690186 0.40256017446517944 -0.40256017446517944)(0.2571934163570404 0.4039786159992218 -0.4039786159992218)(0.24927976727485657 0.4055006206035614 -0.4055006206035614)(0.24136611819267273 0.40712112188339233 -0.40712112188339233)(0.2334524691104889 0.408832311630249 -0.408832311630249)(0.22553884983062744 0.41062358021736145 -0.41062358021736145)(0.2176252156496048 0.4124815762042999 -0.41248151659965515)(0.20971158146858215 0.41439056396484375 -0.41439056396484375)(0.2017979472875595 0.4163331389427185 -0.41633307933807373)(0.19388429820537567 0.4182901978492737 -0.4182901978492737)(0.18597064912319183 0.42024242877960205 -0.42024239897727966)(0.178057000041008 0.4221705496311188 -0.422170490026474)(0.17014338076114655 0.42405611276626587 -0.4240560829639435)(0.1622297316789627 0.4258825480937958 -0.4258825182914734)(0.15431608259677887 0.4276352822780609 -0.42763522267341614)(0.14640243351459503 0.42930227518081665 -0.42930224537849426)(0.1384887844324112 0.4308743178844452 -0.4308742880821228)(0.13057516515254974 0.43234503269195557 -0.4323450028896332)(0.1226615309715271 0.43371057510375977 -0.4337105453014374)(0.11474788188934326 0.4349697232246399 -0.4349696934223175)(0.10683423280715942 0.4361233115196228 -0.436123251914978)(0.09892059862613678 0.4371739327907562 -0.43717390298843384)(0.09100696444511414 0.43812575936317444 -0.43812569975852966)(0.0830933153629303 0.4389837980270386 -0.4389837384223938)(0.07517968118190765 0.4397539496421814 -0.4397538900375366)(0.06726603209972382 0.4404425024986267 -0.44044244289398193)(0.05935238301753998 0.44105592370033264 -0.4410558342933655)(0.051438748836517334 0.4416006803512573 -0.44160062074661255)(0.04352511465549469 0.4420831501483917 -0.44208309054374695)(0.03561146557331085 0.44250938296318054 -0.44250932335853577)(0.027697831392288208 0.4428851306438446 -0.44288507103919983)(0.01978418231010437 0.4432157278060913 -0.44321563839912415)(0.011870534159243107 0.4435060918331146 -0.44350600242614746)(0.003956899978220463 0.4437607526779175 -0.4437606930732727)(-0.003956719301640987 0.4437607526779175 -0.4437606930732727)(-0.011870353482663631 0.4435060918331146 -0.44350600242614746)(-0.019784003496170044 0.4432157278060913 -0.44321563839912415)(-0.027697652578353882 0.4428851306438446 -0.44288507103919983)(-0.03561130166053772 0.44250938296318054 -0.44250932335853577)(-0.04352495074272156 0.4420831501483917 -0.44208309054374695)(-0.05143857002258301 0.4416006803512573 -0.44160062074661255)(-0.05935220420360565 0.44105592370033264 -0.4410558342933655)(-0.06726585328578949 0.4404425024986267 -0.44044244289398193)(-0.07517950236797333 0.4397539496421814 -0.4397538900375366)(-0.08309313654899597 0.43898385763168335 -0.4389837384223938)(-0.09100678563117981 0.4381257891654968 -0.43812569975852966)(-0.09892040491104126 0.437173992395401 -0.43717390298843384)(-0.1068340539932251 0.4361233711242676 -0.436123251914978)(-0.11474771797657013 0.43496978282928467 -0.4349696934223175)(-0.12266136705875397 0.43371063470840454 -0.4337105453014374)(-0.1305750012397766 0.43234509229660034 -0.4323450028896332)(-0.13848862051963806 0.43087440729141235 -0.4308742880821228)(-0.1464022696018219 0.4293023347854614 -0.42930224537849426)(-0.15431590378284454 0.4276353716850281 -0.42763522267341614)(-0.16222955286502838 0.42588263750076294 -0.4258825182914734)(-0.17014320194721222 0.4240562319755554 -0.4240560829639435)(-0.17805685102939606 0.42217060923576355 -0.422170490026474)(-0.1859704703092575 0.4202425181865692 -0.42024239897727966)(-0.19388411939144135 0.41829028725624084 -0.4182901978492737)(-0.201797753572464 0.4163331985473633 -0.41633307933807373)(-0.20971141755580902 0.4143906831741333 -0.41439056396484375)(-0.21762506663799286 0.4124816656112671 -0.41248151659965515)(-0.2255387008190155 0.4106236696243286 -0.41062358021736145)(-0.23345232009887695 0.4088324308395386 -0.408832311630249)(-0.2413659691810608 0.4071212410926819 -0.40712112188339233)(-0.24927961826324463 0.40550073981285095 -0.4055006206035614)(-0.25719326734542847 0.40397873520851135 -0.4039786159992218)(-0.2651069164276123 0.402560293674469 -0.40256017446517944)(-0.27302056550979614 0.40124791860580444 -0.4012477993965149)(-0.2809341847896576 0.400041788816452 -0.4000416398048401)(-0.28884780406951904 0.3989401161670685 -0.39893999695777893)(-0.2967614531517029 0.3979395031929016 -0.3979393541812897)(-0.3046751022338867 0.39703527092933655 -0.3970351219177246)(-0.31258875131607056 0.39622193574905396 -0.396221786737442)(-0.3205024003982544 0.39549341797828674 -0.3954932689666748)(-0.32841601967811584 0.3948432207107544 -0.39484310150146484)(-0.3363296687602997 0.39426493644714355 -0.394264817237854)(-0.3442433178424835 0.3937520682811737 -0.39375194907188416)(-0.35215696692466736 0.393298476934433 -0.39329835772514343)(-0.3600705862045288 0.39289817214012146 -0.3928980827331543)(-0.36798423528671265 0.3925457298755646 -0.39254558086395264)(-0.3758978545665741 0.39223581552505493 -0.392235666513443)(-0.38381150364875793 0.39196380972862244 -0.3919636607170105)(-0.3917251527309418 0.39172545075416565 -0.3917253017425537))
polyLine 0 4 ((0.3917253017425537 0.3917252719402313 -0.3917253017425537)(0.3919636607170105 0.3919636309146881 -0.3838116526603699)(0.392235666513443 0.3922356367111206 -0.37589800357818604)(0.39254558086395264 0.39254552125930786 -0.3679843842983246)(0.3928980827331543 0.3928980231285095 -0.36007073521614075)(0.3932983875274658 0.39329832792282104 -0.3521571159362793)(0.39375200867652893 0.39375191926956177 -0.34424346685409546)(0.3942648470401764 0.3942647874355316 -0.3363298177719116)(0.39484313130378723 0.39484304189682007 -0.3284161686897278)(0.3954932987689972 0.39549320936203003 -0.32050251960754395)(0.396221786737442 0.39622172713279724 -0.3125888705253601)(0.3970351219177246 0.39703506231307983 -0.30467522144317627)(0.3979393541812897 0.3979392945766449 -0.29676157236099243)(0.39893999695777893 0.39893993735313416 -0.2888479232788086)(0.4000416696071625 0.4000415802001953 -0.28093430399894714)(0.4012478291988373 0.4012477397918701 -0.2730206847190857)(0.40256020426750183 0.40256011486053467 -0.26510703563690186)(0.4039786458015442 0.403978556394577 -0.257193386554718)(0.4055006504058838 0.4055005609989166 -0.24927973747253418)(0.4071211516857147 0.40712106227874756 -0.24136608839035034)(0.4088323414325714 0.40883222222328186 -0.2334524393081665)(0.41062361001968384 0.4106234908103943 -0.22553882002830505)(0.4124816060066223 0.4124814569950104 -0.2176251858472824)(0.4143906533718109 0.414390504360199 -0.20971153676509857)(0.4163331687450409 0.41633301973342896 -0.20179788768291473)(0.41829025745391846 0.4182901084423065 -0.1938842535018921)(0.4202424883842468 0.4202423095703125 -0.18597060441970825)(0.4221705496311188 0.4221704304218292 -0.17805695533752441)(0.42405617237091064 0.4240560233592987 -0.17014330625534058)(0.42588260769844055 0.4258824586868286 -0.16222965717315674)(0.4276353120803833 0.42763519287109375 -0.1543160080909729)(0.42930227518081665 0.4293021559715271 -0.14640237390995026)(0.43087437748908997 0.43087419867515564 -0.13848872482776642)(0.43234506249427795 0.432344913482666 -0.13057510554790497)(0.43371063470840454 0.4337104260921478 -0.12266147136688232)(0.43496978282928467 0.43496957421302795 -0.11474782228469849)(0.4361233413219452 0.4361231327056885 -0.10683417320251465)(0.437173992395401 0.4371738135814667 -0.09892052412033081)(0.4381257891654968 0.4381256103515625 -0.09100688993930817)(0.43898382782936096 0.43898364901542664 -0.08309324085712433)(0.4397539794445038 0.43975377082824707 -0.07517960667610168)(0.4404425024986267 0.4404423236846924 -0.06726595759391785)(0.44105592370033264 0.4410557150840759 -0.05935230851173401)(0.4416007101535797 0.441600501537323 -0.051438674330711365)(0.4420832097530365 0.4420829713344574 -0.04352504014968872)(0.4425094425678253 0.4425092041492462 -0.03561139106750488)(0.442885160446167 0.4428849518299103 -0.027697741985321045)(0.4432157278060913 0.4432155191898346 -0.019784092903137207)(0.443506121635437 0.4435058832168579 -0.01187044382095337)(0.4437607526779175 0.44376057386398315 -0.003956809639930725)(0.4437607526779175 0.44376057386398315 0.003956809639930725)(0.443506121635437 0.4435058832168579 0.01187044382095337)(0.4432157874107361 0.4432155191898346 0.019784092903137207)(0.44288522005081177 0.4428849518299103 0.027697741985321045)(0.4425094723701477 0.4425092041492462 0.03561139106750488)(0.4420832395553589 0.4420829713344574 0.04352504014968872)(0.4416007399559021 0.4416004717350006 0.051438674330711365)(0.4410559833049774 0.4410557150840759 0.05935230851173401)(0.4404425621032715 0.4404423236846924 0.06726595759391785)(0.43975403904914856 0.43975377082824707 0.07517960667610168)(0.43898388743400574 0.43898361921310425 0.08309324085712433)(0.4381258487701416 0.4381255805492401 0.09100688993930817)(0.4371740520000458 0.4371737837791443 0.09892052412033081)(0.43612340092658997 0.4361231327056885 0.10683417320251465)(0.43496984243392944 0.43496954441070557 0.11474782228469849)(0.4337106943130493 0.43371039628982544 0.12266147136688232)(0.43234512209892273 0.43234485387802124 0.13057510554790497)(0.43087443709373474 0.43087413907051086 0.13848872482776642)(0.4293023943901062 0.42930206656455994 0.14640237390995026)(0.4276353716850281 0.4276350736618042 0.1543160080909729)(0.4258826673030853 0.42588233947753906 0.16222965717315674)(0.4240562617778778 0.42405590415000916 0.17014330625534058)(0.42217063903808594 0.42217034101486206 0.17805695533752441)(0.4202425479888916 0.4202422499656677 0.18597060441970825)(0.41829031705856323 0.41829001903533936 0.1938842535018921)(0.41633322834968567 0.4163329005241394 0.20179788768291473)(0.4143907129764557 0.4143903851509094 0.20971153676509857)(0.4124816656112671 0.4124813377857208 0.2176251858472824)(0.410623699426651 0.41062337160110474 0.22553882002830505)(0.40883246064186096 0.4088321328163147 0.2334524393081665)(0.4071212708950043 0.407120943069458 0.24136608839035034)(0.40550076961517334 0.4055004417896271 0.24927973747253418)(0.40397876501083374 0.4039784371852875 0.257193386554718)(0.4025603234767914 0.4025599956512451 0.26510703563690186)(0.40124794840812683 0.40124762058258057 0.2730206847190857)(0.400041788816452 0.40004146099090576 0.28093430399894714)(0.3989401161670685 0.3989397883415222 0.2888479232788086)(0.397939532995224 0.39793917536735535 0.29676157236099243)(0.39703530073165894 0.3970349431037903 0.30467522144317627)(0.39622196555137634 0.3962216079235077 0.3125888705253601)(0.39549344778060913 0.3954930901527405 0.32050251960754395)(0.3948432505130768 0.39484289288520813 0.3284161686897278)(0.39426496624946594 0.3942646086215973 0.3363298177719116)(0.3937521278858185 0.39375174045562744 0.34424346685409546)(0.39329850673675537 0.3932981491088867 0.3521571159362793)(0.39289823174476624 0.3928978741168976 0.36007073521614075)(0.39254575967788696 0.3925453722476959 0.3679843842983246)(0.3922358453273773 0.3922354578971863 0.37589800357818604)(0.3919638395309448 0.3919634521007538 0.3838116526603699)(0.39172548055648804 0.391725093126297 0.3917253017425537))
polyLine 1 2 ((0.3917253017425537 -0.3917253017425537 -0.3917253017425537)(0.3838116526603699 -0.3919636607170105 -0.3919636607170105)(0.37589800357818604 -0.392235666513443 -0.392235666513443)(0.3679843842983246 -0.39254558086395264 -0.39254558086395264)(0.36007073521614075 -0.3928980529308319 -0.3928980827331543)(0.3521570861339569 -0.39329835772514343 -0.39329835772514343)(0.34424346685409546 -0.39375194907188416 -0.39375197887420654)(0.3363298177719116 -0.394264817237854 -0.394264817237854)(0.3284161686897278 -0.39484310150146484 -0.39484310150146484)(0.32050251960754395 -0.3954932689666748 -0.3954932689666748)(0.3125888705253601 -0.396221786737442 -0.396221786737442)(0.30467522144317627 -0.3970351219177246 -0.3970351219177246)(0.29676157236099243 -0.3979393541812897 -0.3979393541812897)(0.2888479232788086 -0.39893996715545654 -0.39893999695777893)(0.28093427419662476 -0.4000416398048401 -0.4000416398048401)(0.2730206549167633 -0.4012477993965149 -0.4012477993965149)(0.26510703563690186 -0.40256017446517944 -0.40256017446517944)(0.257193386554718 -0.4039786159992218 -0.4039786159992218)(0.24927972257137299 -0.4055006206035614 -0.4055006206035614)(0.24136608839035034 -0.40712112188339233 -0.40712112188339233)(0.2334524393081665 -0.40883228182792664 -0.408832311630249)(0.22553882002830505 -0.41062355041503906 -0.41062358021736145)(0.21762517094612122 -0.41248154640197754 -0.41248154640197754)(0.20971152186393738 -0.41439059376716614 -0.41439059376716614)(0.20179787278175354 -0.4163331091403961 -0.4163331091403961)(0.1938842386007309 -0.4182901978492737 -0.4182901978492737)(0.18597058951854706 -0.42024242877960205 -0.42024242877960205)(0.17805692553520203 -0.422170490026474 -0.422170490026474)(0.17014330625534058 -0.4240560829639435 -0.42405611276626587)(0.16222964227199554 -0.4258825182914734 -0.4258825480937958)(0.1543159782886505 -0.42763522267341614 -0.4276352524757385)(0.14640234410762787 -0.4293022155761719 -0.42930224537849426)(0.13848869502544403 -0.4308742880821228 -0.4308743178844452)(0.13057507574558258 -0.4323450028896332 -0.4323450028896332)(0.12266143411397934 -0.43371057510375977 -0.43371057510375977)(0.1147477850317955 -0.4349696934223175 -0.4349697232246399)(0.10683413594961166 -0.4361232817173004 -0.4361232817173004)(0.09892050176858902 -0.43717390298843384 -0.4371739327907562)(0.09100686758756638 -0.43812572956085205 -0.43812572956085205)(0.08309321850538254 -0.4389837682247162 -0.4389837682247162)(0.0751795694231987 -0.4397538900375366 -0.439753919839859)(0.06726592034101486 -0.44044241309165955 -0.44044244289398193)(0.059352267533540726 -0.4410558342933655 -0.44105586409568787)(0.05143863335251808 -0.44160059094429016 -0.44160065054893494)(0.04352499917149544 -0.44208309054374695 -0.44208312034606934)(0.0356113500893116 -0.44250935316085815 -0.44250935316085815)(0.027697715908288956 -0.44288504123687744 -0.44288507103919983)(0.019784051924943924 -0.44321563839912415 -0.44321566820144653)(0.011870401911437511 -0.44350600242614746 -0.44350603222846985)(0.003956767730414867 -0.44376063346862793 -0.4437606930732727)(-0.003956851549446583 -0.44376063346862793 -0.4437606930732727)(-0.011870485730469227 -0.44350600242614746 -0.44350603222846985)(-0.01978413388133049 -0.44321563839912415 -0.44321566820144653)(-0.027697797864675522 -0.44288504123687744 -0.44288507103919983)(-0.03561144694685936 -0.4425092935562134 -0.44250935316085815)(-0.0435250960290432 -0.44208306074142456 -0.44208312034606934)(-0.05143871530890465 -0.4416005611419678 -0.44160065054893494)(-0.05935234948992729 -0.4410558342933655 -0.44105586409568787)(-0.06726599484682083 -0.44044241309165955 -0.44044244289398193)(-0.07517964392900467 -0.4397538900375366 -0.439753919839859)(-0.08309329301118851 -0.4389837682247162 -0.4389837682247162)(-0.09100694209337234 -0.43812572956085205 -0.43812572956085205)(-0.0989205613732338 -0.43717387318611145 -0.4371739327907562)(-0.10683421045541763 -0.43612322211265564 -0.4361232817173004)(-0.11474785953760147 -0.4349696636199951 -0.4349697232246399)(-0.12266150861978531 -0.4337105453014374 -0.43371057510375977)(-0.13057515025138855 -0.4323450028896332 -0.4323450028896332)(-0.1384887993335724 -0.4308742582798004 -0.4308743178844452)(-0.14640244841575623 -0.4293021857738495 -0.42930224537849426)(-0.15431608259677887 -0.42763522267341614 -0.4276352524757385)(-0.1622297316789627 -0.4258825182914734 -0.4258825480937958)(-0.17014336585998535 -0.4240560829639435 -0.42405611276626587)(-0.1780570149421692 -0.4221704602241516 -0.422170490026474)(-0.18597063422203064 -0.4202423691749573 -0.42024242877960205)(-0.19388428330421448 -0.4182901382446289 -0.4182901978492737)(-0.20179791748523712 -0.41633304953575134 -0.4163331091403961)(-0.20971156656742096 -0.41439053416252136 -0.41439059376716614)(-0.2176252156496048 -0.41248148679733276 -0.41248154640197754)(-0.22553884983062744 -0.4106235206127167 -0.41062358021736145)(-0.2334524691104889 -0.40883225202560425 -0.408832311630249)(-0.24136614799499512 -0.40712106227874756 -0.40712112188339233)(-0.24927979707717896 -0.4055005609989166 -0.4055006206035614)(-0.2571934461593628 -0.403978556394577 -0.4039786159992218)(-0.26510709524154663 -0.40256011486053467 -0.40256017446517944)(-0.27302074432373047 -0.4012477397918701 -0.4012477993965149)(-0.2809343636035919 -0.4000416100025177 -0.4000416398048401)(-0.28884798288345337 -0.39893993735313416 -0.39893999695777893)(-0.2967616319656372 -0.3979393243789673 -0.3979393541812897)(-0.30467528104782104 -0.3970350921154022 -0.3970351219177246)(-0.3125889301300049 -0.39622175693511963 -0.396221786737442)(-0.3205025792121887 -0.3954932391643524 -0.3954932689666748)(-0.32841619849205017 -0.39484304189682007 -0.39484310150146484)(-0.336329847574234 -0.39426475763320923 -0.394264817237854)(-0.34424352645874023 -0.3937518894672394 -0.39375197887420654)(-0.3521571755409241 -0.39329829812049866 -0.39329835772514343)(-0.3600707948207855 -0.3928980231285095 -0.3928980827331543)(-0.36798444390296936 -0.39254552125930786 -0.39254558086395264)(-0.3758980631828308 -0.3922356069087982 -0.392235666513443)(-0.38381171226501465 -0.3919636011123657 -0.3919636607170105)(-0.3917253613471985 -0.39172524213790894 -0.3917253017425537))